Circuit: * C:\Users\d\Desktop\Projects\Hotplate\Simulation and circuits\snubber circuit.asc

Direct Newton iteration for .op point succeeded.

Date: Tue Oct 24 01:17:54 2023
Total elapsed time: 0.183 seconds.

tnom = 27
temp = 27
method = modified trap
totiter = 49815
traniter = 49809
tranpoints = 20681
accept = 15971
rejected = 4710
matrix size = 16
fillins = 0
solver = Normal
Avg thread counts: 1.1/1.2/1.2/1.1
Matrix Compiler1: 762 bytes object code size  0.3/0.1/[0.1]
Matrix Compiler2: 1.15 KB object code size  0.1/0.2/[0.1]

